/*--------------------------------*- C++ -*----------------------------------*\
| =========                 |                                                 |
| \\      /  F ield         | OpenFOAM: The Open Source CFD Toolbox           |
|  \\    /   O peration     | Version:  v1806                                 |
|   \\  /    A nd           | Web:      www.OpenFOAM.com                      |
|    \\/     M anipulation  |                                                 |
\*---------------------------------------------------------------------------*/
FoamFile
{
    version     2.0;
    format      ascii;
    class       dictionary;
    object      blockMeshDict;
}
// * * * * * * * * * * * * * * * * * * * * * * * * * * * * * * * * * * * * * //

scale   0.01;

vertices
(
//Base
	(0 -10 -1.5)  //  0
    	(10 0 -2) // 1
	(0 10 -1.5) // 2
	(-10 0 -1)// 3

	(0 -6.7 -1.5)// 4	
	(6.7 0 -1.835) // 5
	(0 6.7 -1.5) //  6
    	(-6.7 0 -1.165) // 7

	(0 -10 0)  // 8
    	(10 0 0) // 9
	(0 10 0)// 10
	(-10 0 0)// 11 

	(0 -6.7 0)// 12	
	(6.7 0 0) // 13
	(0 6.7 0) // 14
    	(-6.7 0 0) // 15

);

blocks
(
    hex (4 5 6 7 12 13 14 15) (100 100 20) simpleGrading (1 1 1) // central block	
    hex (0 1 5 4 8 9 13 12) (100 100 20) simpleGrading (1 1 1) // bottom right
    hex (1 2 6 5 9 10 14 13) (100 100 20) simpleGrading (1 1 1) // top right	
    hex (2 3 7 6 10 11 15 14) (100 100 20) simpleGrading (1 1 1) // top left	
    hex (3 0 4 7 11 8 12 15) (100 100 20) simpleGrading (1 1 1) // bottom left	

);

edges
(
//Bottom ring
	arc 0 1 (7.0710 -7.0710 -1.8535)
	arc 1 2 (7.0710 7.0710 -1.8535)
	arc 2 3 (-7.0710 7.0710 -1.1464)
	arc 3 0 (-7.0710 -7.0710 -1.1464)

//Top ring
	arc 8 9 (7.0710 -7.0710 0)
	arc 9 10 (7.0710 7.0710 0)
	arc 10 11 (-7.0710 7.0710 0)
	arc 11 8 (-7.0710 -7.0710 0) 
);

  boundary               // keyword
    (
        weld              // patch name
        {
            type empty;    // patch type for patch 0
            faces
            (
                (8 9 13 12)// block face in this patch
                (9 10 14 13)
                (10 11 15 14)
                (11 8 12 15)
            );
        }                  // end of 0th patch definition

        bottom             // patch name
        {
            type patch;    // patch type for patch 1
            faces
            (
                (0 1 5 4)
                (1 2 6 5)
                (2 3 7 6)
                (3 0 4 7)
            );
        }

        walls
        {
            type wall;
            faces
            (
                (0 1 9 8)
                (1 2 10 9)
                (2 3 11 10)
                (3 0 8 11)
            );
        }
    );

mergePatchPairs
(
);

// ************************************************************************* //
